-------------------------------------------------------
          Amber 20 PMEMD                              2020
          -------------------------------------------------------

  [-O]verwriting output

File Assignments:

 Here is the input file:

 &cntrl

!!! INPUT
 irest = 1      ! restarting simulation
 ntx = 5        ! read in coordinates and velocities

!!! OUTPUT
 ntxo = 2       ! restart file format binary
 ntpr = 500   ! write energy information every 10000 steps to log file
 ntwx = 500   ! write coordinates every 10000 steps to a trajectory file
 ntwr = 500   ! write restart file every 10000 steps to corresponding file
 ioutfm = 1     ! use binary NetCDF format for trajectories

!!! DYNAMICS
 nstlim = 2000000 ! perform 50000 MD steps
 dt = 0.002     ! use time steps of 2fs

!!! TEMPERATURE
 ntt = 3        ! constant temperature, Langevin dynamics
 temp0 = 300    ! reference temperature T = 275 K
 gamma_ln = 5   ! collision frequency = 5/ps
 ig = -1      ! Langevin thermostat random force

!!! CONSTRAINTS
 ntc = 2        ! bonds with hydrogens

!!! POTENTIAL ENERGY EVALUATION
 ntf = 2        ! ignore bonded interactions with hydrogens (ntc != 1)
 cut = 9999.0	! effectively no truncation of nonbonded pairs (actually default
 rgbmax = 9999.0 ! effectively no truncation betweem atom pairs for Born-radius

!!! IMPLICIT SOLVENT
 igb = 1	! HCT GB model

 !!! GAMD SETTINGS
 igamd = 3
 iE = 2
 irest_gamd = 0
 ntcmd = 1000000
 nteb = 1000000
 ntave =50000
 ntcmdprep = 200000
 ntebprep = 200000
 sigma0D = 6.0
 sigma0P = 6.0

&end

Note: ig = -1. Setting random seed to   570209 based on wallclock time in
      microseconds.
set default iED = iE
set default iEP = iE

--------------------------------------------------------------------------------
   1.  RESOURCE   USE:
--------------------------------------------------------------------------------

 NATOM  =     138 NTYPES =      12 NBONH =      61 MBONA  =      80
 NTHETH =     139 MTHETA =     110 NPHIH =     306 MPHIA  =     318
 NHPARM =       0 NPARM  =       0 NNB   =     750 NRES   =      10
 NBONA  =      80 NTHETA =     110 NPHIA =     318 NUMBND =      40
 NUMANG =      86 NPTRA  =     100 NATYP =      24 NPHB   =       0
 IFBOX  =       0 NMXRS  =      24 IFCAP =       0 NEXTRA =       0
 NCOPY  =       0

 Implicit solvent radii are ArgH and AspGluO modified Bondi2 radii (mbondi3)
--------------------------------------------------------------------------------
   2.  CONTROL  DATA  FOR  THE  RUN
--------------------------------------------------------------------------------

default_name

General flags:
     imin    =       0, nmropt  =       0

Nature and format of input:
     ntx     =       5, irest   =       1, ntrx    =       1

Nature and format of output:
     ntxo    =       2, ntpr    =     500, ntrx    =       1, ntwr    =     500
     iwrap   =       0, ntwx    =     500, ntwv    =       0, ntwe    =       0
     ioutfm  =       1, ntwprt  =       0, idecomp =       0, rbornstat=      0

Potential function:
     ntf     =       2, ntb     =       0, igb     =       1, nsnb    =      25
     ipol    =       0, gbsa    =       0, iesp    =       0
     dielc   =   1.00000, cut     =9999.00000, intdiel =   1.00000
     saltcon =   0.00000, offset  =   0.09000, gbalpha=    1.00000
     gbbeta  =   0.00000, gbgamma =   0.00000, surften =   0.00500
     rdt     =   0.00000, rgbmax  =9999.00000  extdiel =  78.50000
     alpb  =        0

Frozen or restrained atoms:
     ibelly  =       0, ntr     =       0

Molecular dynamics:
     nstlim  =   2000000, nscm    =      1000, nrespa  =         1
     t       =   0.00000, dt      =   0.00200, vlimit  =  -1.00000

Langevin dynamics temperature regulation:
     ig      =  570209
     temp0   = 300.00000, tempi   =   0.00000, gamma_ln=   5.00000

SHAKE:
     ntc     =       2, jfastw  =       0
     tol     =   0.00001

--------------------------------------------------------------------------------
   3.  ATOMIC COORDINATES AND VELOCITIES
--------------------------------------------------------------------------------

default_name
 begin time read from input coords =  1000.000 ps

 Number of triangulated 3-point waters found:        0

--------------------------------------------------------------------------------
   4.  RESULTS
 NSTEP =      500   TIME(PS) =    1001.000  TEMP(K) =   257.12  PRESS =     0.0
 Etot   =       -14.2158  EKtot   =        90.1813  EPtot      =      -104.3971
 BOND   =        29.3197  ANGLE   =        64.2733  DIHED      =       317.4033
 1-4 NB =        27.6555  1-4 EEL =       531.1823  VDWAALS    =       -45.4098
 EELEC  =      -682.0963  EGB     =      -346.7252  RESTRAINT  =         0.0000
 ------------------------------------------------------------------------------

      A V E R A G E S   O V E R   50000 S T E P S

 NSTEP =    50000   TIME(PS) =    1100.000  TEMP(K) =   302.15  PRESS =     0.0
 Etot   =        66.5476  EKtot   =       105.9762  EPtot      =       -39.4286
 BOND   =        29.4670  ANGLE   =        70.4084  DIHED      =       381.0023
 1-4 NB =        28.0649  1-4 EEL =       528.0137  VDWAALS    =       -47.2929
 EELEC  =      -677.8973  EGB     =      -351.1948  RESTRAINT  =         0.0000
 ------------------------------------------------------------------------------

      R M S  F L U C T U A T I O N S

 NSTEP =    50000   TIME(PS) =    1100.000  TEMP(K) =    22.98  PRESS =     0.0
 Etot   =        36.5182  EKtot   =         8.0590  EPtot      =        35.6407
 BOND   =         4.5416  ANGLE   =         6.9263  DIHED      =        35.0855
 1-4 NB =         2.4872  1-4 EEL =         8.7227  VDWAALS    =         3.3718
 EELEC  =        23.5614  EGB     =        21.8815  RESTRAINT  =         0.0000
 ------------------------------------------------------------------------------

      A V E R A G E S   O V E R   50000 S T E P S

 NSTEP =   100000   TIME(PS) =    1200.000  TEMP(K) =   300.56  PRESS =     0.0
 Etot   =        67.0871  EKtot   =       105.4193  EPtot      =       -38.3322
 BOND   =        29.4509  ANGLE   =        70.4259  DIHED      =       382.8199
 1-4 NB =        27.3172  1-4 EEL =       529.2858  VDWAALS    =       -47.9929
 EELEC  =      -660.7059  EGB     =      -368.9330  RESTRAINT  =         0.0000
 ------------------------------------------------------------------------------

      R M S  F L U C T U A T I O N S

 NSTEP =   100000   TIME(PS) =    1200.000  TEMP(K) =    22.23  PRESS =     0.0
 Etot   =        34.3087  EKtot   =         7.7978  EPtot      =        33.5346
 BOND   =         4.5461  ANGLE   =         6.8721  DIHED      =        32.0274
 1-4 NB =         2.4868  1-4 EEL =         9.4018  VDWAALS    =         3.6411
 EELEC  =        18.5663  EGB     =        16.6080  RESTRAINT  =         0.0000
 ------------------------------------------------------------------------------

      A V E R A G E S   O V E R   50000 S T E P S

 NSTEP =   150000   TIME(PS) =    1300.000  TEMP(K) =   299.34  PRESS =     0.0
 Etot   =        68.2880  EKtot   =       104.9919  EPtot      =       -36.7039
 BOND   =        29.2191  ANGLE   =        69.6158  DIHED      =       385.7691
 1-4 NB =        27.0878  1-4 EEL =       530.4506  VDWAALS    =       -46.7543
 EELEC  =      -670.8263  EGB     =      -361.2658  RESTRAINT  =         0.0000
 ------------------------------------------------------------------------------

      R M S  F L U C T U A T I O N S

 NSTEP =   150000   TIME(PS) =    1300.000  TEMP(K) =    22.04  PRESS =     0.0
 Etot   =        32.2669  EKtot   =         7.7294  EPtot      =        31.4987
 BOND   =         4.5045  ANGLE   =         6.7634  DIHED      =        30.1102
 1-4 NB =         2.4391  1-4 EEL =         8.7175  VDWAALS    =         3.0427
 EELEC  =        24.8546  EGB     =        19.2804  RESTRAINT  =         0.0000
 ------------------------------------------------------------------------------

      A V E R A G E S   O V E R   50000 S T E P S

 NSTEP =   200000   TIME(PS) =    1400.000  TEMP(K) =   298.31  PRESS =     0.0
 Etot   =        72.3820  EKtot   =       104.6274  EPtot      =       -32.2455
 BOND   =        29.2377  ANGLE   =        69.7403  DIHED      =       391.8213
 1-4 NB =        26.8408  1-4 EEL =       529.6485  VDWAALS    =       -45.9162
 EELEC  =      -696.4512  EGB     =      -337.1666  RESTRAINT  =         0.0000
 ------------------------------------------------------------------------------

      R M S  F L U C T U A T I O N S

 NSTEP =   200000   TIME(PS) =    1400.000  TEMP(K) =    23.16  PRESS =     0.0
 Etot   =        32.5502  EKtot   =         8.1247  EPtot      =        31.3310
 BOND   =         4.5848  ANGLE   =         6.8244  DIHED      =        29.7531
 1-4 NB =         2.5369  1-4 EEL =         8.1888  VDWAALS    =         3.5931
 EELEC  =        20.0738  EGB     =        18.0442  RESTRAINT  =         0.0000
 ------------------------------------------------------------------------------

      A V E R A G E S   O V E R   50000 S T E P S

 NSTEP =   250000   TIME(PS) =    1500.000  TEMP(K) =   299.45  PRESS =     0.0
 Etot   =        76.1278  EKtot   =       105.0286  EPtot      =       -28.9008
 BOND   =        29.2821  ANGLE   =        70.3893  DIHED      =       394.2216
 1-4 NB =        26.9144  1-4 EEL =       526.8037  VDWAALS    =       -46.9622
 EELEC  =      -693.9083  EGB     =      -335.6413  RESTRAINT  =         0.0000
 ------------------------------------------------------------------------------

      R M S  F L U C T U A T I O N S

 NSTEP =   250000   TIME(PS) =    1500.000  TEMP(K) =    22.97  PRESS =     0.0
 Etot   =        34.5032  EKtot   =         8.0564  EPtot      =        33.4220
 BOND   =         4.5657  ANGLE   =         6.7810  DIHED      =        31.4534
 1-4 NB =         2.4296  1-4 EEL =         8.3537  VDWAALS    =         4.1745
 EELEC  =        19.7370  EGB     =        16.5964  RESTRAINT  =         0.0000
 ------------------------------------------------------------------------------

      A V E R A G E S   O V E R   50000 S T E P S

 NSTEP =  1850000   TIME(PS) =    4700.000  TEMP(K) =   301.18  PRESS =     0.0
 Etot   =       139.2135  EKtot   =       105.6345  EPtot      =        33.5790
 BOND   =        62.8632  ANGLE   =       134.3841  DIHED      =       170.5460
 1-4 NB =        33.8395  1-4 EEL =       514.2479  VDWAALS    =       -27.4329
 EELEC  =      -625.7020  EGB     =      -379.9720  RESTRAINT  =         0.0000
 GAMD   =       150.8051
 ------------------------------------------------------------------------------

      R M S  F L U C T U A T I O N S

 NSTEP =  1850000   TIME(PS) =    4700.000  TEMP(K) =    22.61  PRESS =     0.0
 Etot   =         9.4011  EKtot   =         7.9310  EPtot      =         5.1055
 BOND   =         9.1606  ANGLE   =        11.4456  DIHED      =        12.8150
 1-4 NB =         3.8504  1-4 EEL =        11.8845  VDWAALS    =         3.7133
 EELEC  =        22.4669  EGB     =        19.2230  RESTRAINT  =         0.0000
 GAMD   =         9.9481
 ------------------------------------------------------------------------------

      A V E R A G E S   O V E R   50000 S T E P S

 NSTEP =  1900000   TIME(PS) =    4800.000  TEMP(K) =   299.41  PRESS =     0.0
 Etot   =       138.2292  EKtot   =       105.0163  EPtot      =        33.2129
 BOND   =        62.8715  ANGLE   =       133.9282  DIHED      =       170.4701
 1-4 NB =        33.6825  1-4 EEL =       526.3788  VDWAALS    =       -26.4520
 EELEC  =      -627.5065  EGB     =      -390.9973  RESTRAINT  =         0.0000
 GAMD   =       150.8375
 ------------------------------------------------------------------------------

      R M S  F L U C T U A T I O N S

 NSTEP =  1900000   TIME(PS) =    4800.000  TEMP(K) =    22.63  PRESS =     0.0
 Etot   =         9.3774  EKtot   =         7.9380  EPtot      =         5.0439
 BOND   =         9.1654  ANGLE   =        11.4019  DIHED      =        11.9358
 1-4 NB =         3.7758  1-4 EEL =        12.8747  VDWAALS    =         3.6259
 EELEC  =        22.6386  EGB     =        16.4879  RESTRAINT  =         0.0000
 GAMD   =         9.6302
 ------------------------------------------------------------------------------

      A V E R A G E S   O V E R   50000 S T E P S

 NSTEP =  1950000   TIME(PS) =    4900.000  TEMP(K) =   300.29  PRESS =     0.0
 Etot   =       140.1657  EKtot   =       105.3232  EPtot      =        34.8424
 BOND   =        61.7059  ANGLE   =       131.9672  DIHED      =       172.9304
 1-4 NB =        33.4272  1-4 EEL =       523.9818  VDWAALS    =       -27.2770
 EELEC  =      -630.6996  EGB     =      -385.1301  RESTRAINT  =         0.0000
 GAMD   =       153.9366
 ------------------------------------------------------------------------------

      R M S  F L U C T U A T I O N S

 NSTEP =  1950000   TIME(PS) =    4900.000  TEMP(K) =    22.35  PRESS =     0.0
 Etot   =         9.3147  EKtot   =         7.8406  EPtot      =         5.1554
 BOND   =         8.8620  ANGLE   =        11.1882  DIHED      =        12.7071
 1-4 NB =         3.7440  1-4 EEL =        12.1304  VDWAALS    =         3.4651
 EELEC  =        22.8007  EGB     =        20.0514  RESTRAINT  =         0.0000
 GAMD   =        10.1906
 ------------------------------------------------------------------------------

      A V E R A G E S   O V E R   50000 S T E P S

 NSTEP =  2000000   TIME(PS) =    5000.000  TEMP(K) =   300.53  PRESS =     0.0
 Etot   =       139.1829  EKtot   =       105.4085  EPtot      =        33.7744
 BOND   =        62.6652  ANGLE   =       133.0389  DIHED      =       174.6700
 1-4 NB =        33.2548  1-4 EEL =       522.4321  VDWAALS    =       -26.1349
 EELEC  =      -621.7837  EGB     =      -393.8022  RESTRAINT  =         0.0000
 GAMD   =       149.4341
 ------------------------------------------------------------------------------

      R M S  F L U C T U A T I O N S

 NSTEP =  2000000   TIME(PS) =    5000.000  TEMP(K) =    22.09  PRESS =     0.0
 Etot   =         9.1258  EKtot   =         7.7484  EPtot      =         5.1195
 BOND   =         9.0950  ANGLE   =        11.3285  DIHED      =        12.0967
 1-4 NB =         3.7485  1-4 EEL =        12.5922  VDWAALS    =         3.9230
 EELEC  =        27.2792  EGB     =        25.0760  RESTRAINT  =         0.0000
 GAMD   =         9.6231
 ------------------------------------------------------------------------------

      A V E R A G E S   O V E R 2000000 S T E P S

 NSTEP =  2000000   TIME(PS) =    5000.000  TEMP(K) =   299.88  PRESS =     0.0
 Etot   =        95.4817  EKtot   =       105.1803  EPtot      =        -9.6986
 BOND   =        43.7899  ANGLE   =        97.4187  DIHED      =       277.9414
 1-4 NB =        29.9055  1-4 EEL =       524.8712  VDWAALS    =       -36.5343
 EELEC  =      -650.5925  EGB     =      -371.9764  RESTRAINT  =         0.0000
 GAMD   =        75.4778
 ------------------------------------------------------------------------------

      R M S  F L U C T U A T I O N S

 NSTEP =  2000000   TIME(PS) =    5000.000  TEMP(K) =    22.60  PRESS =     0.0
 Etot   =        55.9963  EKtot   =         7.9251  EPtot      =        55.3778
 BOND   =        17.2474  ANGLE   =        31.7481  DIHED      =       110.7826
 1-4 NB =         4.3431  1-4 EEL =        12.2103  VDWAALS    =         9.8364
 EELEC  =        42.9833  EGB     =        35.0626  RESTRAINT  =         0.0000
 GAMD   =        76.8971
 ------------------------------------------------------------------------------
